Version 4
SHEET 1 880 680
WIRE 208 64 96 64
WIRE 448 64 400 64
WIRE 96 112 96 64
WIRE 448 112 448 64
WIRE 96 224 96 192
WIRE 448 224 448 176
FLAG 96 224 0
FLAG 448 224 0
FLAG 96 64 VBUS_IN
FLAG 448 64 VBUS
SYMBOL voltage 96 96 R0
WINDOW 3 -378 52 Left 2
WINDOW 123 -374 83 Left 2
WINDOW 39 0 0 Left 0
SYMATTR InstName V1
SYMATTR Value SINE(5 1 100E6 0 0 0 1E9)
SYMATTR Value2 AC 1
SYMBOL AutoGenerated\\BLM15PX601SN1 304 64 R0
SYMATTR InstName U1
SYMBOL cap 432 112 R0
SYMATTR InstName C1
SYMATTR Value 0.1µ
TEXT -284 248 Left 2 !.tran 0 100n 0 1n
